Version 4
SHEET 1 984 680
WIRE 544 32 -80 32
WIRE 544 112 544 32
WIRE 400 208 384 208
WIRE 544 208 544 192
WIRE 544 208 480 208
WIRE 704 208 544 208
WIRE 928 208 768 208
WIRE 544 224 544 208
WIRE -80 240 -80 32
WIRE 928 240 928 208
WIRE 240 272 80 272
WIRE 384 272 384 208
WIRE 384 272 304 272
WIRE 480 272 384 272
WIRE 80 336 80 272
WIRE 544 352 544 320
WIRE -80 432 -80 320
WIRE 80 432 80 416
WIRE 80 432 -80 432
WIRE 544 432 80 432
WIRE 928 432 928 320
WIRE 928 432 544 432
WIRE 544 448 544 432
FLAG 544 448 0
DATAFLAG 544 208 ""
DATAFLAG 384 272 ""
DATAFLAG 544 336 ""
SYMBOL voltage -80 224 R0
WINDOW 123 0 0 Left 0
WINDOW 39 0 0 Left 0
SYMATTR InstName V1
SYMATTR Value 18
SYMBOL voltage 80 320 R0
WINDOW 123 0 0 Left 0
WINDOW 39 0 0 Left 0
SYMATTR InstName V2
SYMATTR Value SINE(0 0.1 1k)
SYMBOL npn 480 224 R0
SYMATTR InstName Q1
SYMATTR Value 2N2222
SYMBOL res 912 224 R0
SYMATTR InstName R3
SYMATTR Value 1k
SYMBOL res 528 96 R0
SYMATTR InstName R1
SYMATTR Value 4.7k
SYMBOL cap 768 192 R90
WINDOW 0 0 32 VBottom 2
WINDOW 3 32 32 VTop 2
SYMATTR InstName C1
SYMATTR Value 10µ
SYMBOL cap 304 256 R90
WINDOW 0 0 32 VBottom 2
WINDOW 3 32 32 VTop 2
SYMATTR InstName C2
SYMATTR Value 10µ
SYMBOL res 528 336 R0
SYMATTR InstName R4
SYMATTR Value 1.2k
SYMBOL res 496 192 R90
WINDOW 0 0 56 VBottom 2
WINDOW 3 32 56 VTop 2
SYMATTR InstName R2
SYMATTR Value 250k
TEXT 552 40 Left 2 !.op
